/*--------------------------------*- C++ -*----------------------------------*\
|       o          |                                                          |
|    o     o       | HELYX(R): Open-source CFD for Enterprise                 |
|   o   O   o      | Version: v4.4.0                                          |
|    o     o       | Engys Ltd. http://www.engys.com                          |
|       o          |                                                          |
\*---------------------------------------------------------------------------*/
FoamFile
{
    version 2.0;
    format ascii;
    class dictionary;
    location constant;
    object g;
}
    value ( 0.0 0.0 -9.81 );
    dimensions [0  1 -2  0 0 0 0];

